36

Nb        1.395907    0.066130    0.004825
B        -0.902888   -0.066755   -0.003314
H         0.092761   -1.182570   -0.004098
H         0.613824    1.626831    0.007734
C         0.971692    0.189845   -2.373197
C         1.924450    1.208648   -2.096905
C         3.115691    0.581455   -1.673144
C         2.912248   -0.828057   -1.700881
C         1.595402   -1.072482   -2.146801
C         0.955490    0.172682    2.380679
C         1.581100   -1.087839    2.149432
C         2.900888   -0.839844    1.714264
C         3.104101    0.569883    1.698155
C         1.909804    1.193692    2.118294
H         1.129177   -2.055554    2.293267
H         3.634004   -1.587349    1.453284
H         4.017048    1.072728    1.418490
H         1.749626    2.252870    2.229902
H        -0.050979    0.321769    2.729832
H         1.765318    2.268651   -2.201985
H         4.026855    1.081988   -1.383662
H         3.643364   -1.577660   -1.440298
H         1.144219   -2.039017   -2.300660
H        -0.032348    0.341745   -2.728081
O        -1.738838   -0.070243   -1.156197
O        -1.746648   -0.079663    1.143809
C        -3.042248   -0.069427    0.684820
C        -3.037507   -0.063696   -0.705943
C        -4.216973   -0.060374    1.409153
C        -4.207243   -0.048479   -1.438201
C        -5.412362   -0.045360    0.678379
C        -5.407593   -0.039471   -0.715517
H        -4.210511   -0.064134    2.491585
H        -6.356666   -0.037251    1.208503
H        -6.348256   -0.026854   -1.251985
H        -4.193349   -0.043117   -2.520557
