36

Nb           1.3959    0.0661    0.0048
B           -0.9029   -0.0668   -0.0033
H            0.0928   -1.1826   -0.0041
H            0.6138    1.6268    0.0077
H            1.1292   -2.0556    2.2933
H            3.6340   -1.5873    1.4533
H            4.0170    1.0727    1.4185
H            1.7496    2.2529    2.2299
H           -0.0510    0.3218    2.7298
H            1.7653    2.2687   -2.2020
H            4.0269    1.0820   -1.3837
H            3.6434   -1.5777   -1.4403
H            1.1442   -2.0390   -2.3007
H           -0.0323    0.3417   -2.7281
H           -4.2105   -0.0641    2.4916
H           -6.3567   -0.0373    1.2085
H           -6.3483   -0.0269   -1.2520
H           -4.1933   -0.0431   -2.5206
C            0.9717    0.1898   -2.3732
C            1.9244    1.2086   -2.0969
C            3.1157    0.5815   -1.6731
C            2.9122   -0.8281   -1.7009
C            1.5954   -1.0725   -2.1468
C            0.9555    0.1727    2.3807
C            1.5811   -1.0878    2.1494
C            2.9009   -0.8398    1.7143
C            3.1041    0.5699    1.6982
C            1.9098    1.1937    2.1183
C           -3.0422   -0.0694    0.6848
C           -3.0375   -0.0637   -0.7059
C           -4.2170   -0.0604    1.4092
C           -4.2072   -0.0485   -1.4382
C           -5.4124   -0.0454    0.6784
C           -5.4076   -0.0395   -0.7155
O           -1.7388   -0.0702   -1.1562
O           -1.7466   -0.0797    1.1438
